OPT_V10/Two_days_MCY3_MIQCPM1/powerflow_results_t10.txt
Pandapower Network Debug Info
==================================================

BUS:
       vm_pu  va_degree      p_mw    q_mvar
0   0.997592   0.331591 -0.001113  0.001166
1   0.996283   0.538135 -0.001271  0.001986
2   0.994547   0.699203 -0.000309  0.002839
3   0.995609   0.493318 -0.000200  0.004043
4   0.999908   0.001996  0.006353  0.008626
5   0.999895   0.002169  0.006395  0.010616
6   0.999885   0.002256  0.011940  0.012415
7   0.999946   0.001446  0.000000  0.000000
8   0.999946   0.001452  0.000000  0.000000
9   1.000000   0.000000 -0.021905 -0.046760
10  1.000000   0.000006  0.000000  0.000000
--------------------------------------------------

LINE:
   p_from_mw  q_from_mvar   p_to_mw  q_to_mvar         pl_mw       ql_mvar  i_from_ka   i_to_ka      i_ka  vm_from_pu  va_from_degree  vm_to_pu  va_to_degree  loading_percent
0   0.021895     0.042760 -0.021893  -0.042758  2.257314e-06  1.760065e-06   0.001849  0.001849  0.001849    1.000000        0.000006  0.999946      0.001446         0.803928
1   0.024690     0.031658 -0.024689  -0.031657  1.246558e-06  9.719621e-07   0.001545  0.001545  0.001545    0.999946        0.001446  0.999908      0.001996         0.671905
2  -0.002808     0.010100  0.002859  -0.010060  5.140232e-05  4.007924e-05   0.015131  0.015131  0.015131    0.999946        0.001452  0.997592      0.331591         6.578846
3  -0.018336    -0.023032  0.018336   0.023032  2.997695e-07  2.337352e-07   0.001133  0.001133  0.001133    0.999895        0.002169  0.999908      0.001996         0.492706
4  -0.011940    -0.012415  0.011940   0.012415  1.451432e-07  1.131705e-07   0.000663  0.000663  0.000663    0.999885        0.002256  0.999895      0.002169         0.288293
5   0.001572    -0.004830 -0.001557   0.004842  1.537819e-05  1.199063e-05   0.007359  0.007359  0.007359    0.996283        0.538135  0.997592      0.331591         3.199491
6   0.000200    -0.004043 -0.000189   0.004051  1.103634e-05  8.605215e-06   0.005868  0.005868  0.005868    0.995609        0.493318  0.997592      0.331591         2.551399
7   0.000309    -0.002839 -0.000301   0.002844  7.455799e-06  5.813409e-06   0.004144  0.004144  0.004144    0.994547        0.699203  0.996283      0.538135         1.801656
--------------------------------------------------

TRAFO:
    p_hv_mw  q_hv_mvar   p_lv_mw  q_lv_mvar    pl_mw  ql_mvar   i_hv_ka   i_lv_ka  vm_hv_pu  va_hv_degree  vm_lv_pu  va_lv_degree  loading_percent
0 -0.002798    0.01110  0.002808   -0.01010  0.00001    0.001  0.000441  0.015131  0.999946      0.001446  0.999946      0.001452         0.114474
1  0.021905    0.04676 -0.021895   -0.04276  0.00001    0.004  0.000426  0.001849  1.000000      0.000000  1.000000      0.000006         0.129090
--------------------------------------------------
